Version 4
SHEET 1 1764 680
WIRE 240 -384 240 -448
WIRE 592 -384 240 -384
WIRE 688 -384 592 -384
WIRE 880 -384 768 -384
WIRE 1008 -384 880 -384
WIRE 1120 -384 1008 -384
WIRE 880 -368 880 -384
WIRE 240 -352 240 -384
WIRE 592 -336 592 -384
WIRE 688 -288 656 -288
WIRE 1120 -288 1120 -304
WIRE 1120 -288 768 -288
WIRE 1120 -256 1120 -288
WIRE 240 -240 240 -272
WIRE 336 -240 240 -240
WIRE 480 -240 400 -240
WIRE 592 -240 560 -240
WIRE 880 -240 880 -304
WIRE 1120 -144 1120 -176
WIRE 1120 -144 1104 -144
WIRE 240 -128 240 -240
WIRE 592 -128 240 -128
WIRE 688 -128 592 -128
WIRE 880 -128 768 -128
WIRE 1008 -128 880 -128
WIRE 1104 -128 1104 -144
WIRE 1104 -128 1008 -128
WIRE 1120 -128 1120 -144
WIRE 880 -112 880 -128
WIRE 240 -96 240 -128
WIRE 592 -80 592 -128
WIRE 688 -32 656 -32
WIRE 1120 -32 1120 -48
WIRE 1120 -32 768 -32
WIRE 1120 -16 1120 -32
WIRE 240 16 240 -16
WIRE 480 16 240 16
WIRE 592 16 560 16
WIRE 880 16 880 -48
WIRE 240 96 240 16
WIRE 592 96 240 96
WIRE 688 96 592 96
WIRE 880 96 768 96
WIRE 1008 96 880 96
WIRE 1120 96 1120 64
WIRE 1120 96 1008 96
WIRE 880 112 880 96
WIRE 240 128 240 96
WIRE 592 144 592 96
WIRE 688 192 656 192
WIRE 1008 192 768 192
WIRE 240 240 240 208
WIRE 480 240 240 240
WIRE 592 240 560 240
WIRE 880 240 880 176
WIRE 240 288 240 240
WIRE 240 400 240 368
FLAG 880 -240 0
FLAG 880 16 0
FLAG 880 240 0
FLAG 1008 -384 Uout_3
IOPIN 1008 -384 In
FLAG 1008 -128 Uout_2
IOPIN 1008 -128 In
FLAG 1008 96 Uout_1
IOPIN 1008 96 In
FLAG 240 400 0
SYMBOL voltage 240 -368 R0
WINDOW 123 0 0 Left 2
WINDOW 39 0 0 Left 2
SYMATTR InstName V3
SYMATTR Value 4.2
SYMBOL res 784 -400 R90
WINDOW 0 0 56 VBottom 2
WINDOW 3 32 56 VTop 2
SYMATTR InstName R1
SYMATTR Value 10k
SYMBOL res 784 -304 R90
WINDOW 0 0 56 VBottom 2
WINDOW 3 32 56 VTop 2
SYMATTR InstName R2
SYMATTR Value 10k
SYMBOL pnp 656 -240 R180
SYMATTR InstName Q1
SYMATTR Value 2N2907
SYMBOL res 576 -256 R90
WINDOW 0 0 56 VBottom 2
WINDOW 3 32 56 VTop 2
SYMATTR InstName R8
SYMATTR Value 100
SYMBOL cap 864 -368 R0
SYMATTR InstName C1
SYMATTR Value 3µ3
SYMBOL voltage 240 -112 R0
WINDOW 123 0 0 Left 2
WINDOW 39 0 0 Left 2
SYMATTR InstName V1
SYMATTR Value 4.2
SYMBOL res 784 -144 R90
WINDOW 0 0 56 VBottom 2
WINDOW 3 32 56 VTop 2
SYMATTR InstName R3
SYMATTR Value 10k
SYMBOL res 784 -48 R90
WINDOW 0 0 56 VBottom 2
WINDOW 3 32 56 VTop 2
SYMATTR InstName R4
SYMATTR Value 10k
SYMBOL pnp 656 16 R180
SYMATTR InstName Q2
SYMATTR Value 2N2907
SYMBOL res 576 0 R90
WINDOW 0 0 56 VBottom 2
WINDOW 3 32 56 VTop 2
SYMATTR InstName R5
SYMATTR Value 100
SYMBOL cap 864 -112 R0
SYMATTR InstName C2
SYMATTR Value 3µ3
SYMBOL voltage 240 112 R0
WINDOW 123 0 0 Left 2
WINDOW 39 0 0 Left 2
SYMATTR InstName V2
SYMATTR Value 4.2
SYMBOL res 784 80 R90
WINDOW 0 0 56 VBottom 2
WINDOW 3 32 56 VTop 2
SYMATTR InstName R6
SYMATTR Value 10k
SYMBOL res 784 176 R90
WINDOW 0 0 56 VBottom 2
WINDOW 3 32 56 VTop 2
SYMATTR InstName R7
SYMATTR Value 10k
SYMBOL pnp 656 240 R180
SYMATTR InstName Q3
SYMATTR Value 2N2907
SYMBOL res 576 224 R90
WINDOW 0 0 56 VBottom 2
WINDOW 3 32 56 VTop 2
SYMATTR InstName R9
SYMATTR Value 100
SYMBOL cap 864 112 R0
SYMATTR InstName C3
SYMATTR Value 3µ3
SYMBOL res 1104 -400 R0
SYMATTR InstName R10
SYMATTR Value 1meg
SYMBOL res 1104 -272 R0
SYMATTR InstName R11
SYMATTR Value 20
SYMBOL res 1104 -144 R0
SYMATTR InstName R12
SYMATTR Value 20
SYMBOL res 1104 -32 R0
SYMATTR InstName R13
SYMATTR Value 1meg
SYMBOL voltage 240 272 R0
WINDOW 123 0 0 Left 2
WINDOW 39 0 0 Left 2
SYMATTR InstName V4
SYMATTR Value {9 * 4.2}
SYMBOL LED 400 -256 R90
WINDOW 0 0 32 VBottom 2
WINDOW 3 72 32 VTop 2
SYMATTR InstName D1
SYMATTR Value NSSW008CT-P1
TEXT 432 -456 Left 2 !.tran 0 10m 0
TEXT 1096 152 Left 2 ;Pull-up on
TEXT 1096 -424 Left 2 ;Discharging
TEXT 720 -224 Left 2 ;GND behind\nlarge resistance
TEXT 328 -88 Left 2 ;Discharge\ncurrent path
TEXT 328 -336 Left 2 ;Optional\nstatus LED
LINE Normal 576 -112 320 -112
LINE Normal 576 0 576 -112
LINE Normal 320 0 576 0
LINE Normal 352 -16 320 0
LINE Normal 352 -16 352 -16
LINE Normal 352 16 320 0
RECTANGLE Normal 1248 -160 1072 -400 2
RECTANGLE Normal 1248 128 1072 -144 2
RECTANGLE Normal 960 -176 672 -448 3
